
     RDKit          3D

 10  8  0  0  0  0  0  0  0  0999 V2000
  -35.0130   52.5100  -26.2870 P   0  0  0  0  0  0  0  0  0  0  0  0
  -33.5420   52.2620  -26.1440 O   0  0  0  0  0  0  0  0  0  0  0  0
  -35.0320   54.0130  -26.2770 O   0  0  0  0  0  0  0  0  0  0  0  0
  -35.7710   51.9320  -25.1490 O   0  0  0  0  0  0  0  0  0  0  0  0
  -35.5680   51.9020  -27.5330 O   0  0  0  0  0  0  0  0  0  0  0  0
   47.5570   22.8610   20.9180 P   0  0  0  0  0  0  0  0  0  0  0  0
   48.2620   24.0440   20.2350 O   0  0  0  0  0  0  0  0  0  0  0  0
   48.2560   21.5720   20.7090 O   0  0  0  0  0  0  0  0  0  0  0  0
   47.2570   23.1290   22.4160 O   0  0  0  0  0  0  0  0  0  0  0  0
   46.0940   22.7000   20.4110 O   0  0  0  0  0  0  0  0  0  0  0  0
  2  1  1  0
  3  1  1  0
  4  1  1  0
  5  1  1  0
  7  6  1  0
  8  6  1  0
  9  6  1  0
 10  6  1  0
M  END

