
     RDKit          3D

 70 56  0  0  0  0  0  0  0  0999 V2000
   15.3170   14.2820   -7.1770 S   0  0  1  0  0  0  0  0  0  0  0  0
   15.6960   13.7420   -8.4990 O   0  0  0  0  0  0  0  0  0  0  0  0
   14.4330   13.3170   -6.4930 O   0  0  0  0  0  0  0  0  0  0  0  0
   16.5240   14.4770   -6.3560 O   0  0  0  0  0  0  0  0  0  0  0  0
   14.6220   15.5780   -7.3390 O   0  0  0  0  0  0  0  0  0  0  0  0
   17.9890  -21.4580   12.4860 S   0  0  1  0  0  0  0  0  0  0  0  0
   18.8160  -21.8060   13.6550 O   0  0  0  0  0  0  0  0  0  0  0  0
   17.3870  -20.1270   12.7100 O   0  0  0  0  0  0  0  0  0  0  0  0
   18.8450  -21.4210   11.2850 O   0  0  0  0  0  0  0  0  0  0  0  0
   16.9310  -22.4780   12.3170 O   0  0  0  0  0  0  0  0  0  0  0  0
    3.4510  -18.5140   24.6130 S   0  0  1  0  0  0  0  0  0  0  0  0
    2.4210  -19.3810   24.0040 O   0  0  0  0  0  0  0  0  0  0  0  0
    3.2850  -18.5260   26.0770 O   0  0  0  0  0  0  0  0  0  0  0  0
    4.7980  -19.0240   24.2790 O   0  0  0  0  0  0  0  0  0  0  0  0
    3.2980  -17.1310   24.0980 O   0  0  0  0  0  0  0  0  0  0  0  0
    9.2580   -5.5630   24.4740 S   0  0  1  0  0  0  0  0  0  0  0  0
    8.4260   -6.7550   24.7580 O   0  0  0  0  0  0  0  0  0  0  0  0
   10.3120   -5.4210   25.5080 O   0  0  0  0  0  0  0  0  0  0  0  0
    9.8980   -5.6310   23.1420 O   0  0  0  0  0  0  0  0  0  0  0  0
    8.3600   -4.3790   24.5430 O   0  0  0  0  0  0  0  0  0  0  0  0
    2.1490    0.4640  -29.8560 S   0  0  1  0  0  0  0  0  0  0  0  0
    0.9420    0.5040  -29.0100 O   0  0  0  0  0  0  0  0  0  0  0  0
    3.3230    0.1920  -29.0120 O   0  0  0  0  0  0  0  0  0  0  0  0
    2.0150   -0.6040  -30.8680 O   0  0  0  0  0  0  0  0  0  0  0  0
    2.3340    1.7680  -30.5240 O   0  0  0  0  0  0  0  0  0  0  0  0
   -8.2100  -10.6050   20.9730 S   0  0  1  0  0  0  0  0  0  0  0  0
   -9.0230  -10.4340   19.7410 O   0  0  0  0  0  0  0  0  0  0  0  0
   -8.7160   -9.7610   22.0780 O   0  0  0  0  0  0  0  0  0  0  0  0
   -8.2460  -12.0260   21.3800 O   0  0  0  0  0  0  0  0  0  0  0  0
   -6.8160  -10.2130   20.6980 O   0  0  0  0  0  0  0  0  0  0  0  0
   10.8850   10.2840  -58.8220 S   0  0  1  0  0  0  0  0  0  0  0  0
   10.2410   10.6650  -60.0930 O   0  0  0  0  0  0  0  0  0  0  0  0
   11.1370   11.5050  -58.0390 O   0  0  0  0  0  0  0  0  0  0  0  0
    9.9950    9.3820  -58.0680 O   0  0  0  0  0  0  0  0  0  0  0  0
   12.1600    9.5940  -59.1030 O   0  0  0  0  0  0  0  0  0  0  0  0
   62.7130   24.9240  -38.7190 S   0  0  1  0  0  0  0  0  0  0  0  0
   61.4090   25.4060  -38.1910 O   0  0  0  0  0  0  0  0  0  0  0  0
   63.6250   24.5210  -37.6270 O   0  0  0  0  0  0  0  0  0  0  0  0
   62.4950   23.7750  -39.6180 O   0  0  0  0  0  0  0  0  0  0  0  0
   63.3640   26.0180  -39.4690 O   0  0  0  0  0  0  0  0  0  0  0  0
   48.8560   28.9780  -20.9760 S   0  0  1  0  0  0  0  0  0  0  0  0
   47.8780   28.3690  -21.8910 O   0  0  0  0  0  0  0  0  0  0  0  0
   49.3940   27.9260  -20.0910 O   0  0  0  0  0  0  0  0  0  0  0  0
   49.9570   29.5860  -21.7530 O   0  0  0  0  0  0  0  0  0  0  0  0
   48.1820   30.0170  -20.1740 O   0  0  0  0  0  0  0  0  0  0  0  0
   28.6290   12.1680  -65.1840 S   0  0  1  0  0  0  0  0  0  0  0  0
   27.3580   11.4300  -64.9920 O   0  0  0  0  0  0  0  0  0  0  0  0
   29.7460   11.2050  -65.2530 O   0  0  0  0  0  0  0  0  0  0  0  0
   28.5630   12.9550  -66.4310 O   0  0  0  0  0  0  0  0  0  0  0  0
   28.8410   13.0910  -64.0550 O   0  0  0  0  0  0  0  0  0  0  0  0
    2.7090   22.0080  -20.9240 S   0  0  1  0  0  0  0  0  0  0  0  0
    1.9200   20.7770  -21.1260 O   0  0  0  0  0  0  0  0  0  0  0  0
    1.8040   23.1730  -20.9580 O   0  0  0  0  0  0  0  0  0  0  0  0
    3.3860   21.9550  -19.6110 O   0  0  0  0  0  0  0  0  0  0  0  0
    3.7060   22.1380  -22.0070 O   0  0  0  0  0  0  0  0  0  0  0  0
   26.1230   25.6010  -61.3540 S   0  0  1  0  0  0  0  0  0  0  0  0
   25.5450   26.4220  -62.4470 O   0  0  0  0  0  0  0  0  0  0  0  0
   25.0840   25.3950  -60.3320 O   0  0  0  0  0  0  0  0  0  0  0  0
   26.6140   24.3230  -61.8930 O   0  0  0  0  0  0  0  0  0  0  0  0
   27.2800   26.3300  -60.7650 O   0  0  0  0  0  0  0  0  0  0  0  0
   35.3970   37.3340  -53.7170 S   0  0  1  0  0  0  0  0  0  0  0  0
   35.3720   38.3340  -54.8000 O   0  0  0  0  0  0  0  0  0  0  0  0
   34.1690   37.4600  -52.8850 O   0  0  0  0  0  0  0  0  0  0  0  0
   35.4460   35.9800  -54.3040 O   0  0  0  0  0  0  0  0  0  0  0  0
   36.6060   37.5750  -52.9020 O   0  0  0  0  0  0  0  0  0  0  0  0
   45.6210   20.6270  -22.4890 S   0  0  1  0  0  0  0  0  0  0  0  0
   45.5960   19.3900  -23.2940 O   0  0  0  0  0  0  0  0  0  0  0  0
   44.2900   20.8220  -21.8780 O   0  0  0  0  0  0  0  0  0  0  0  0
   46.6270   20.5090  -21.4170 O   0  0  0  0  0  0  0  0  0  0  0  0
   45.9670   21.7700  -23.3480 O   0  0  0  0  0  0  0  0  0  0  0  0
  1  2  1  6
  3  1  1  0
  4  1  1  0
  5  1  1  0
  6  7  1  1
  8  6  1  0
  9  6  1  0
 10  6  1  0
 11 12  1  6
 13 11  1  0
 14 11  1  0
 15 11  1  0
 16 17  1  1
 18 16  1  0
 19 16  1  0
 20 16  1  0
 21 22  1  1
 23 21  1  0
 24 21  1  0
 25 21  1  0
 26 27  1  6
 28 26  1  0
 29 26  1  0
 30 26  1  0
 31 32  1  6
 33 31  1  0
 34 31  1  0
 35 31  1  0
 36 37  1  1
 38 36  1  0
 39 36  1  0
 40 36  1  0
 41 42  1  6
 43 41  1  0
 44 41  1  0
 45 41  1  0
 46 47  1  1
 48 46  1  0
 49 46  1  0
 50 46  1  0
 51 52  1  6
 53 51  1  0
 54 51  1  0
 55 51  1  0
 56 57  1  6
 58 56  1  0
 59 56  1  0
 60 56  1  0
 61 62  1  6
 63 61  1  0
 64 61  1  0
 65 61  1  0
 66 67  1  6
 68 66  1  0
 69 66  1  0
 70 66  1  0
M  END

